syshost=owens database=xalt software=None executables=VASP cpuhours=465853.55 corehours=0 nodehours=17608.97 n_jobs=2989 n_users=27 n_groups=0 n_accounts=0 year=2020 month=12
syshost=owens database=xalt software=None executables=namd2 cpuhours=217895.17 corehours=0 nodehours=8205.41 n_jobs=190 n_users=7 n_groups=0 n_accounts=0 year=2020 month=12
syshost=owens database=xalt software=None executables=TSpimpleFoamRobustBlendingFactor-v0.1 cpuhours=148800.48 corehours=0 nodehours=5314.41 n_jobs=148 n_users=4 n_groups=0 n_accounts=0 year=2020 month=12
syshost=owens database=xalt software=None executables=LAMMPS cpuhours=96410.4 corehours=0 nodehours=17025.09 n_jobs=3300 n_users=23 n_groups=0 n_accounts=0 year=2020 month=12
syshost=owens database=xalt software=None executables=perl cpuhours=62268.8 corehours=0 nodehours=1259450.64 n_jobs=4650 n_users=43 n_groups=0 n_accounts=0 year=2020 month=12
syshost=owens database=xalt software=None executables=MATLAB cpuhours=61510.39 corehours=0 nodehours=61532.54 n_jobs=6915 n_users=43 n_groups=0 n_accounts=0 year=2020 month=12
syshost=owens database=xalt software=None executables=Amber cpuhours=52008.32 corehours=0 nodehours=37649.59 n_jobs=6387 n_users=8 n_groups=0 n_accounts=0 year=2020 month=12
syshost=owens database=xalt software=None executables=bowtie2-align-s cpuhours=46318.4 corehours=0 nodehours=1194948.06 n_jobs=174 n_users=14 n_groups=0 n_accounts=0 year=2020 month=12
syshost=owens database=xalt software=None executables=QChem cpuhours=46276.53 corehours=0 nodehours=8178.91 n_jobs=4641 n_users=29 n_groups=0 n_accounts=0 year=2020 month=12
syshost=owens database=xalt software=None executables=da_wrfvar.exe cpuhours=43946.48 corehours=0 nodehours=1569.61 n_jobs=517 n_users=1 n_groups=0 n_accounts=0 year=2020 month=12
syshost=owens database=xalt software=None executables=ls-dyna_mpp_d_r10_1_123355_x64_redhat54_ifort160_sse2_intelmpi-413 cpuhours=36608.17 corehours=0 nodehours=1157.58 n_jobs=90 n_users=5 n_groups=0 n_accounts=0 year=2020 month=12
syshost=owens database=xalt software=None executables=R cpuhours=35496.0 corehours=0 nodehours=34844.97 n_jobs=5939 n_users=232 n_groups=0 n_accounts=0 year=2020 month=12
syshost=owens database=xalt software=None executables=curvdns cpuhours=30033.52 corehours=0 nodehours=1072.63 n_jobs=129 n_users=1 n_groups=0 n_accounts=0 year=2020 month=12
syshost=owens database=xalt software=None executables=python3.8 cpuhours=20520.31 corehours=0 nodehours=21865.44 n_jobs=4752 n_users=38 n_groups=0 n_accounts=0 year=2020 month=12
syshost=owens database=xalt software=None executables=explicit cpuhours=20278.49 corehours=0 nodehours=20579.83 n_jobs=113 n_users=8 n_groups=0 n_accounts=0 year=2020 month=12
syshost=owens database=xalt software=None executables=cygnssE2ES cpuhours=19633.11 corehours=0 nodehours=785.32 n_jobs=128 n_users=1 n_groups=0 n_accounts=0 year=2020 month=12
syshost=owens database=xalt software=None executables=ORCA cpuhours=17624.49 corehours=0 nodehours=1242.55 n_jobs=218 n_users=6 n_groups=0 n_accounts=0 year=2020 month=12
syshost=owens database=xalt software=None executables=Gaussian cpuhours=14890.29 corehours=0 nodehours=12879.2 n_jobs=4437 n_users=42 n_groups=0 n_accounts=0 year=2020 month=12
syshost=owens database=xalt software=None executables=lsp cpuhours=12454.09 corehours=0 nodehours=451.73 n_jobs=129 n_users=5 n_groups=0 n_accounts=0 year=2020 month=12
syshost=owens database=xalt software=None executables=hmmsearch cpuhours=10298.51 corehours=0 nodehours=9982.31 n_jobs=941 n_users=9 n_groups=0 n_accounts=0 year=2020 month=12
syshost=owens database=xalt software=None executables=fluent_mpi.20.1.0 cpuhours=10167.16 corehours=0 nodehours=18364.47 n_jobs=132 n_users=2 n_groups=0 n_accounts=0 year=2020 month=12
syshost=owens database=xalt software=None executables=python3.7 cpuhours=9126.91 corehours=0 nodehours=8751.24 n_jobs=16241 n_users=92 n_groups=0 n_accounts=0 year=2020 month=12
syshost=owens database=xalt software=None executables=pw.x cpuhours=8445.0 corehours=0 nodehours=311.8 n_jobs=86 n_users=5 n_groups=0 n_accounts=0 year=2020 month=12
syshost=owens database=xalt software=None executables=python3.6 cpuhours=8399.69 corehours=0 nodehours=7056.56 n_jobs=59827 n_users=173 n_groups=0 n_accounts=0 year=2020 month=12
syshost=owens database=xalt software=None executables=s1r cpuhours=8384.56 corehours=0 nodehours=8384.56 n_jobs=2704 n_users=1 n_groups=0 n_accounts=0 year=2020 month=12
syshost=owens database=xalt software=None executables=rmblastn cpuhours=8342.82 corehours=0 nodehours=699.14 n_jobs=9 n_users=3 n_groups=0 n_accounts=0 year=2020 month=12
syshost=owens database=xalt software=None executables=isosurface_MATLAB_indices_1_all_configs cpuhours=8054.06 corehours=0 nodehours=8054.06 n_jobs=74 n_users=1 n_groups=0 n_accounts=0 year=2020 month=12
syshost=owens database=xalt software=None executables=simplecFoam cpuhours=7996.7 corehours=0 nodehours=285.6 n_jobs=10 n_users=4 n_groups=0 n_accounts=0 year=2020 month=12
syshost=owens database=xalt software=None executables=fim cpuhours=6408.01 corehours=0 nodehours=234.47 n_jobs=26 n_users=3 n_groups=0 n_accounts=0 year=2020 month=12
syshost=owens database=xalt software=None executables=ansys.e cpuhours=6332.55 corehours=0 nodehours=236.16 n_jobs=37 n_users=6 n_groups=0 n_accounts=0 year=2020 month=12
syshost=owens database=xalt software=None executables=cp2k.popt cpuhours=5899.13 corehours=0 nodehours=247.62 n_jobs=117 n_users=1 n_groups=0 n_accounts=0 year=2020 month=12
syshost=owens database=xalt software=None executables=hydra_pmi_proxy cpuhours=5838.54 corehours=0 nodehours=6623.08 n_jobs=809 n_users=27 n_groups=0 n_accounts=0 year=2020 month=12
syshost=owens database=xalt software=None executables=network cpuhours=5823.74 corehours=0 nodehours=5823.74 n_jobs=57691 n_users=2 n_groups=0 n_accounts=0 year=2020 month=12
syshost=owens database=xalt software=None executables=python2.7 cpuhours=5629.19 corehours=0 nodehours=8299.61 n_jobs=14702 n_users=225 n_groups=0 n_accounts=0 year=2020 month=12
syshost=owens database=xalt software=None executables=lt-simulate cpuhours=5326.31 corehours=0 nodehours=5326.31 n_jobs=5472 n_users=3 n_groups=0 n_accounts=0 year=2020 month=12
syshost=owens database=xalt software=None executables=python cpuhours=4743.68 corehours=0 nodehours=7333.75 n_jobs=1291 n_users=29 n_groups=0 n_accounts=0 year=2020 month=12
syshost=owens database=xalt software=None executables=interFoam-SS1A cpuhours=3783.76 corehours=0 nodehours=157.66 n_jobs=11 n_users=2 n_groups=0 n_accounts=0 year=2020 month=12
syshost=owens database=xalt software=None executables=orted cpuhours=3462.09 corehours=0 nodehours=3496.17 n_jobs=237 n_users=11 n_groups=0 n_accounts=0 year=2020 month=12
syshost=owens database=xalt software=None executables=pmi_proxy cpuhours=3030.22 corehours=0 nodehours=6232.49 n_jobs=793 n_users=30 n_groups=0 n_accounts=0 year=2020 month=12
syshost=owens database=xalt software=None executables=python3 cpuhours=2986.16 corehours=0 nodehours=2986.16 n_jobs=705 n_users=18 n_groups=0 n_accounts=0 year=2020 month=12
syshost=owens database=xalt software=None executables=augustus cpuhours=2933.22 corehours=0 nodehours=2933.22 n_jobs=21 n_users=3 n_groups=0 n_accounts=0 year=2020 month=12
syshost=owens database=xalt software=None executables=samtools cpuhours=2765.43 corehours=0 nodehours=2500.57 n_jobs=5660 n_users=31 n_groups=0 n_accounts=0 year=2020 month=12
syshost=owens database=xalt software=None executables=mpp971_Latest_Nov2020 cpuhours=2718.88 corehours=0 nodehours=97.1 n_jobs=11 n_users=1 n_groups=0 n_accounts=0 year=2020 month=12
syshost=owens database=xalt software=None executables=Xvnc cpuhours=2672.14 corehours=0 nodehours=2990.79 n_jobs=1261 n_users=136 n_groups=0 n_accounts=0 year=2020 month=12
syshost=owens database=xalt software=None executables=mpiexec.hydra cpuhours=2571.79 corehours=0 nodehours=7533.34 n_jobs=3753 n_users=53 n_groups=0 n_accounts=0 year=2020 month=12
syshost=owens database=xalt software=None executables=TSsnappyHexMesh-v2.0 cpuhours=2525.83 corehours=0 nodehours=197.58 n_jobs=11 n_users=3 n_groups=0 n_accounts=0 year=2020 month=12
syshost=owens database=xalt software=None executables=gmx_d cpuhours=2473.06 corehours=0 nodehours=2473.06 n_jobs=392 n_users=1 n_groups=0 n_accounts=0 year=2020 month=12
syshost=owens database=xalt software=None executables=eliT_DriverLM cpuhours=1913.64 corehours=0 nodehours=3340.35 n_jobs=970 n_users=22 n_groups=0 n_accounts=0 year=2020 month=12
syshost=owens database=xalt software=None executables=standard cpuhours=1884.05 corehours=0 nodehours=2916.92 n_jobs=756 n_users=14 n_groups=0 n_accounts=0 year=2020 month=12
syshost=owens database=xalt software=None executables=ridft_mpi cpuhours=1726.27 corehours=0 nodehours=1726.27 n_jobs=11 n_users=3 n_groups=0 n_accounts=0 year=2020 month=12
